*SPEF "ieee 1481-1999"
*DESIGN "iiitb_sipo"
*DATE "11:11:11 Fri 11 11, 1111"
*VENDOR "OpenRCX"
*PROGRAM "Parallel Extraction"
*VERSION "1.0"
*DESIGN_FLOW "NAME_SCOPE LOCAL" "PIN_CAP NONE"
*DIVIDER /
*DELIMITER :
*BUS_DELIMITER []
*T_UNIT 1 NS
*C_UNIT 1 PF
*R_UNIT 1 OHM
*L_UNIT 1 HENRY

*NAME_MAP
*3 clk
*4 d
*5 q[0]
*6 q[1]
*7 q[2]
*8 q[3]
*9 qbar[0]
*10 qbar[1]
*11 qbar[2]
*12 qbar[3]
*13 rst
*14 _00_
*15 _01_
*16 _02_
*17 _03_
*18 _04_
*19 _05_
*20 _06_
*21 _07_
*22 clknet_0_clk
*23 clknet_1_0__leaf_clk
*24 clknet_1_1__leaf_clk
*25 net1
*26 net2
*27 net3
*28 net4
*29 net5
*30 net6
*31 FILLER_0_105
*32 FILLER_0_21
*33 FILLER_0_27
*34 FILLER_0_29
*35 FILLER_0_3
*36 FILLER_0_34
*37 FILLER_0_46
*38 FILLER_0_54
*39 FILLER_0_57
*40 FILLER_0_69
*41 FILLER_0_81
*42 FILLER_0_85
*43 FILLER_0_9
*44 FILLER_0_93
*45 FILLER_0_98
*46 FILLER_10_105
*47 FILLER_10_15
*48 FILLER_10_27
*49 FILLER_10_29
*50 FILLER_10_3
*51 FILLER_10_41
*52 FILLER_10_53
*53 FILLER_10_65
*54 FILLER_10_77
*55 FILLER_10_83
*56 FILLER_10_85
*57 FILLER_10_97
*58 FILLER_11_105
*59 FILLER_11_15
*60 FILLER_11_27
*61 FILLER_11_3
*62 FILLER_11_39
*63 FILLER_11_51
*64 FILLER_11_55
*65 FILLER_11_57
*66 FILLER_11_69
*67 FILLER_11_81
*68 FILLER_11_93
*69 FILLER_12_105
*70 FILLER_12_15
*71 FILLER_12_27
*72 FILLER_12_29
*73 FILLER_12_3
*74 FILLER_12_41
*75 FILLER_12_53
*76 FILLER_12_65
*77 FILLER_12_80
*78 FILLER_12_85
*79 FILLER_12_97
*80 FILLER_13_105
*81 FILLER_13_15
*82 FILLER_13_27
*83 FILLER_13_3
*84 FILLER_13_39
*85 FILLER_13_51
*86 FILLER_13_55
*87 FILLER_13_57
*88 FILLER_13_69
*89 FILLER_13_81
*90 FILLER_13_87
*91 FILLER_13_93
*92 FILLER_14_105
*93 FILLER_14_15
*94 FILLER_14_27
*95 FILLER_14_29
*96 FILLER_14_3
*97 FILLER_14_41
*98 FILLER_14_53
*99 FILLER_14_65
*100 FILLER_14_77
*101 FILLER_14_83
*102 FILLER_14_85
*103 FILLER_14_97
*104 FILLER_15_105
*105 FILLER_15_15
*106 FILLER_15_27
*107 FILLER_15_3
*108 FILLER_15_39
*109 FILLER_15_51
*110 FILLER_15_55
*111 FILLER_15_57
*112 FILLER_15_69
*113 FILLER_15_81
*114 FILLER_15_93
*115 FILLER_16_105
*116 FILLER_16_20
*117 FILLER_16_29
*118 FILLER_16_3
*119 FILLER_16_41
*120 FILLER_16_53
*121 FILLER_16_65
*122 FILLER_16_77
*123 FILLER_16_83
*124 FILLER_16_85
*125 FILLER_16_97
*126 FILLER_17_105
*127 FILLER_17_15
*128 FILLER_17_27
*129 FILLER_17_29
*130 FILLER_17_3
*131 FILLER_17_41
*132 FILLER_17_53
*133 FILLER_17_57
*134 FILLER_17_69
*135 FILLER_17_81
*136 FILLER_17_85
*137 FILLER_17_97
*138 FILLER_1_105
*139 FILLER_1_15
*140 FILLER_1_27
*141 FILLER_1_3
*142 FILLER_1_33
*143 FILLER_1_39
*144 FILLER_1_51
*145 FILLER_1_55
*146 FILLER_1_57
*147 FILLER_1_69
*148 FILLER_1_81
*149 FILLER_1_85
*150 FILLER_1_97
*151 FILLER_2_10
*152 FILLER_2_105
*153 FILLER_2_22
*154 FILLER_2_29
*155 FILLER_2_3
*156 FILLER_2_41
*157 FILLER_2_53
*158 FILLER_2_65
*159 FILLER_2_77
*160 FILLER_2_83
*161 FILLER_2_85
*162 FILLER_2_97
*163 FILLER_3_105
*164 FILLER_3_15
*165 FILLER_3_27
*166 FILLER_3_3
*167 FILLER_3_39
*168 FILLER_3_51
*169 FILLER_3_55
*170 FILLER_3_57
*171 FILLER_3_69
*172 FILLER_3_81
*173 FILLER_3_93
*174 FILLER_4_105
*175 FILLER_4_15
*176 FILLER_4_27
*177 FILLER_4_29
*178 FILLER_4_3
*179 FILLER_4_41
*180 FILLER_4_53
*181 FILLER_4_72
*182 FILLER_4_85
*183 FILLER_4_97
*184 FILLER_5_105
*185 FILLER_5_15
*186 FILLER_5_3
*187 FILLER_5_36
*188 FILLER_5_48
*189 FILLER_5_57
*190 FILLER_5_69
*191 FILLER_5_9
*192 FILLER_5_93
*193 FILLER_6_105
*194 FILLER_6_15
*195 FILLER_6_27
*196 FILLER_6_29
*197 FILLER_6_3
*198 FILLER_6_37
*199 FILLER_6_54
*200 FILLER_6_66
*201 FILLER_6_78
*202 FILLER_6_85
*203 FILLER_6_97
*204 FILLER_7_103
*205 FILLER_7_15
*206 FILLER_7_27
*207 FILLER_7_3
*208 FILLER_7_35
*209 FILLER_7_54
*210 FILLER_7_57
*211 FILLER_7_79
*212 FILLER_7_91
*213 FILLER_8_105
*214 FILLER_8_15
*215 FILLER_8_27
*216 FILLER_8_29
*217 FILLER_8_3
*218 FILLER_8_41
*219 FILLER_8_53
*220 FILLER_8_65
*221 FILLER_8_77
*222 FILLER_8_83
*223 FILLER_8_85
*224 FILLER_8_97
*225 FILLER_9_105
*226 FILLER_9_15
*227 FILLER_9_27
*228 FILLER_9_3
*229 FILLER_9_38
*230 FILLER_9_50
*231 FILLER_9_57
*232 FILLER_9_81
*233 FILLER_9_93
*234 PHY_0
*235 PHY_1
*236 PHY_10
*237 PHY_11
*238 PHY_12
*239 PHY_13
*240 PHY_14
*241 PHY_15
*242 PHY_16
*243 PHY_17
*244 PHY_18
*245 PHY_19
*246 PHY_2
*247 PHY_20
*248 PHY_21
*249 PHY_22
*250 PHY_23
*251 PHY_24
*252 PHY_25
*253 PHY_26
*254 PHY_27
*255 PHY_28
*256 PHY_29
*257 PHY_3
*258 PHY_30
*259 PHY_31
*260 PHY_32
*261 PHY_33
*262 PHY_34
*263 PHY_35
*264 PHY_4
*265 PHY_5
*266 PHY_6
*267 PHY_7
*268 PHY_8
*269 PHY_9
*270 TAP_36
*271 TAP_37
*272 TAP_38
*273 TAP_39
*274 TAP_40
*275 TAP_41
*276 TAP_42
*277 TAP_43
*278 TAP_44
*279 TAP_45
*280 TAP_46
*281 TAP_47
*282 TAP_48
*283 TAP_49
*284 TAP_50
*285 TAP_51
*286 TAP_52
*287 TAP_53
*288 TAP_54
*289 TAP_55
*290 TAP_56
*291 TAP_57
*292 TAP_58
*293 TAP_59
*294 TAP_60
*295 TAP_61
*296 TAP_62
*297 TAP_63
*298 TAP_64
*299 TAP_65
*300 _12_
*301 _13_
*302 _14_
*303 _15_
*304 _16_
*305 _17_
*306 _18_
*307 _19_
*308 _20_
*309 _21_
*310 _22_
*311 _23_
*312 clkbuf_0_clk
*313 clkbuf_1_0__f_clk
*314 clkbuf_1_1__f_clk
*315 input1
*316 input2
*317 output3
*318 output4
*319 output5
*320 output6

*PORTS
clk I
d I
q[0] O
q[1] O
q[2] O
q[3] O
qbar[0] O
qbar[1] O
qbar[2] O
qbar[3] O
rst I

*D_NET *3 0.0041884
*CONN
*P clk I
*I *312:A I *D sky130_fd_sc_hd__clkbuf_16
*CAP
1 clk 0.00179302
2 *312:A 0.00030118
3 *3:20 0.0020942
4 *312:A *28:20 0
5 *3:20 *17:11 0
6 *3:20 *28:11 0
*RES
1 clk *3:20 46.7294 
2 *3:20 *312:A 15.5857 
*END

*D_NET *4 0.000829629
*CONN
*P d I
*I *315:A I *D sky130_fd_sc_hd__clkbuf_1
*CAP
1 d 0.000414815
2 *315:A 0.000414815
*RES
1 d *315:A 22.517 
*END

*D_NET *5 0.00132764
*CONN
*P q[0] O
*I *317:X O *D sky130_fd_sc_hd__buf_2
*CAP
1 q[0] 0.000663818
2 *317:X 0.000663818
*RES
1 *317:X q[0] 28.2107 
*END

*D_NET *6 0.000897628
*CONN
*P q[1] O
*I *318:X O *D sky130_fd_sc_hd__buf_2
*CAP
1 q[1] 0.000448814
2 *318:X 0.000448814
*RES
1 *318:X q[1] 23.8714 
*END

*D_NET *7 0.000737255
*CONN
*P q[2] O
*I *319:X O *D sky130_fd_sc_hd__buf_2
*CAP
1 q[2] 0.000368627
2 *319:X 0.000368627
3 q[2] *25:13 0
*RES
1 *319:X q[2] 22.05 
*END

*D_NET *8 0.00054828
*CONN
*P q[3] O
*I *320:X O *D sky130_fd_sc_hd__buf_2
*CAP
1 q[3] 0.00027414
2 *320:X 0.00027414
*RES
1 *320:X q[3] 18.9462 
*END

*D_NET *13 0.00160376
*CONN
*P rst I
*I *316:A I *D sky130_fd_sc_hd__dlymetal6s2s_1
*CAP
1 rst 0.000801882
2 *316:A 0.000801882
3 *316:A *26:8 0
4 *316:A *28:20 0
*RES
1 rst *316:A 26.3104 
*END

*D_NET *14 0.00364097
*CONN
*I *308:D I *D sky130_fd_sc_hd__dfxtp_1
*I *301:X O *D sky130_fd_sc_hd__clkbuf_1
*CAP
1 *308:D 0.000283426
2 *301:X 0.00153706
3 *14:8 0.00182048
4 *308:D *30:9 0
5 *14:8 *25:13 0
6 *14:8 *27:13 0
*RES
1 *301:X *14:8 47.6214 
2 *14:8 *308:D 19.7152 
*END

*D_NET *15 0.0011071
*CONN
*I *309:D I *D sky130_fd_sc_hd__dfxtp_1
*I *303:X O *D sky130_fd_sc_hd__clkbuf_1
*CAP
1 *309:D 0.000553549
2 *303:X 0.000553549
3 *309:D *309:CLK 0
4 *309:D *19:15 0
*RES
1 *303:X *309:D 39.658 
*END

*D_NET *16 0.00202918
*CONN
*I *310:D I *D sky130_fd_sc_hd__dfxtp_1
*I *305:X O *D sky130_fd_sc_hd__clkbuf_1
*CAP
1 *310:D 0.00101459
2 *305:X 0.00101459
3 *310:D *20:11 0
*RES
1 *305:X *310:D 49.4795 
*END

*D_NET *17 0.00242867
*CONN
*I *311:D I *D sky130_fd_sc_hd__dfxtp_1
*I *307:X O *D sky130_fd_sc_hd__clkbuf_1
*CAP
1 *311:D 0
2 *307:X 0.00121434
3 *17:11 0.00121434
4 *17:11 *320:A 0
5 *3:20 *17:11 0
*RES
1 *307:X *17:11 44.4295 
2 *17:11 *311:D 9.3 
*END

*D_NET *18 0.00030144
*CONN
*I *301:A I *D sky130_fd_sc_hd__clkbuf_1
*I *300:X O *D sky130_fd_sc_hd__and2_1
*CAP
1 *301:A 0.00015072
2 *300:X 0.00015072
3 *301:A *27:13 0
*RES
1 *300:X *301:A 30.9036 
*END

*D_NET *19 0.00575958
*CONN
*I *303:A I *D sky130_fd_sc_hd__clkbuf_1
*I *302:X O *D sky130_fd_sc_hd__and2_1
*CAP
1 *303:A 0
2 *302:X 0.00116707
3 *19:15 0.00171272
4 *19:7 0.00287979
5 *19:7 *302:B 0
6 *19:7 *28:11 0
7 *19:15 *308:CLK 0
8 *309:D *19:15 0
*RES
1 *302:X *19:7 38.1571 
2 *19:7 *19:15 43.2857 
3 *19:15 *303:A 9.3 
*END

*D_NET *20 0.00257986
*CONN
*I *305:A I *D sky130_fd_sc_hd__clkbuf_1
*I *304:X O *D sky130_fd_sc_hd__and2_1
*CAP
1 *305:A 0
2 *304:X 0.00128993
3 *20:11 0.00128993
4 *20:11 *300:B 0
5 *310:D *20:11 0
*RES
1 *304:X *20:11 46.5679 
2 *20:11 *305:A 9.3 
*END

*D_NET *21 0.000537553
*CONN
*I *307:A I *D sky130_fd_sc_hd__clkbuf_1
*I *306:X O *D sky130_fd_sc_hd__and2_1
*CAP
1 *307:A 0.000268777
2 *306:X 0.000268777
*RES
1 *306:X *307:A 33.3679 
*END

*D_NET *22 0.00183913
*CONN
*I *314:A I *D sky130_fd_sc_hd__clkbuf_16
*I *313:A I *D sky130_fd_sc_hd__clkbuf_16
*I *312:X O *D sky130_fd_sc_hd__clkbuf_16
*CAP
1 *314:A 0
2 *313:A 0.000753807
3 *312:X 0.000165761
4 *22:8 0.000919567
5 *313:A *23:8 0
*RES
1 *312:X *22:8 22.0679 
2 *22:8 *313:A 25.0321 
3 *22:8 *314:A 9.3 
*END

*D_NET *23 0.00104485
*CONN
*I *311:CLK I *D sky130_fd_sc_hd__dfxtp_1
*I *310:CLK I *D sky130_fd_sc_hd__dfxtp_1
*I *313:X O *D sky130_fd_sc_hd__clkbuf_16
*CAP
1 *311:CLK 0.000109642
2 *310:CLK 0
3 *313:X 0.000412782
4 *23:8 0.000522424
5 *311:CLK *320:A 0
6 *23:8 *320:A 0
7 *313:A *23:8 0
*RES
1 *313:X *23:8 22.55 
2 *23:8 *310:CLK 13.8 
3 *23:8 *311:CLK 16.3536 
*END

*D_NET *24 0.00198792
*CONN
*I *308:CLK I *D sky130_fd_sc_hd__dfxtp_1
*I *309:CLK I *D sky130_fd_sc_hd__dfxtp_1
*I *314:X O *D sky130_fd_sc_hd__clkbuf_16
*CAP
1 *308:CLK 0.000534001
2 *309:CLK 0.000459957
3 *314:X 0
4 *24:5 0.000993958
5 *308:CLK *306:A 0
6 *309:D *309:CLK 0
7 *19:15 *308:CLK 0
*RES
1 *314:X *24:5 13.8 
2 *24:5 *309:CLK 23.6571 
3 *24:5 *308:CLK 25.7286 
*END

*D_NET *25 0.00283552
*CONN
*I *300:A I *D sky130_fd_sc_hd__and2_1
*I *315:X O *D sky130_fd_sc_hd__clkbuf_1
*CAP
1 *300:A 0
2 *315:X 0.00141776
3 *25:13 0.00141776
4 *25:13 *319:A 0
5 *25:13 *27:13 0
6 q[2] *25:13 0
7 *14:8 *25:13 0
*RES
1 *315:X *25:13 48.1214 
2 *25:13 *300:A 9.3 
*END

*D_NET *26 0.00750979
*CONN
*I *306:B I *D sky130_fd_sc_hd__and2_1
*I *302:B I *D sky130_fd_sc_hd__and2_1
*I *304:B I *D sky130_fd_sc_hd__and2_1
*I *300:B I *D sky130_fd_sc_hd__and2_1
*I *316:X O *D sky130_fd_sc_hd__dlymetal6s2s_1
*CAP
1 *306:B 0.000259358
2 *302:B 0.000926755
3 *304:B 0
4 *300:B 0.000886209
5 *316:X 0.000415005
6 *26:14 0.00106542
7 *26:13 0.00219432
8 *26:8 0.00176272
9 *300:B *320:A 0
10 *302:B *28:11 0
11 *316:A *26:8 0
12 *19:7 *302:B 0
13 *20:11 *300:B 0
*RES
1 *316:X *26:8 22.8179 
2 *26:8 *26:13 31.7143 
3 *26:13 *26:14 4.07143 
4 *26:14 *300:B 33.8893 
5 *26:14 *304:B 13.8 
6 *26:13 *302:B 34.1929 
7 *26:8 *306:B 19.6929 
*END

*D_NET *27 0.00274015
*CONN
*I *317:A I *D sky130_fd_sc_hd__buf_2
*I *309:Q O *D sky130_fd_sc_hd__dfxtp_1
*CAP
1 *317:A 0
2 *309:Q 0.00137007
3 *27:13 0.00137007
4 *301:A *27:13 0
5 *14:8 *27:13 0
6 *25:13 *27:13 0
*RES
1 *309:Q *27:13 47.6214 
2 *27:13 *317:A 9.3 
*END

*D_NET *28 0.00739137
*CONN
*I *318:A I *D sky130_fd_sc_hd__buf_2
*I *302:A I *D sky130_fd_sc_hd__and2_1
*I *311:Q O *D sky130_fd_sc_hd__dfxtp_1
*CAP
1 *318:A 0
2 *302:A 0
3 *311:Q 0
4 *28:20 0.00199528
5 *28:11 0.0017004
6 *28:4 0.00369569
7 *28:20 *306:A 0
8 *302:B *28:11 0
9 *312:A *28:20 0
10 *316:A *28:20 0
11 *3:20 *28:11 0
12 *19:7 *28:11 0
*RES
1 *311:Q *28:4 9.3 
2 *28:4 *28:11 46.2321 
3 *28:11 *302:A 9.3 
4 *28:4 *28:20 48.1429 
5 *28:20 *318:A 13.8 
*END

*D_NET *29 0.00448126
*CONN
*I *306:A I *D sky130_fd_sc_hd__and2_1
*I *319:A I *D sky130_fd_sc_hd__buf_2
*I *310:Q O *D sky130_fd_sc_hd__dfxtp_1
*CAP
1 *306:A 0.000727027
2 *319:A 0.000759794
3 *310:Q 0.000753807
4 *29:7 0.00224063
5 *308:CLK *306:A 0
6 *25:13 *319:A 0
7 *28:20 *306:A 0
*RES
1 *310:Q *29:7 29.5321 
2 *29:7 *319:A 31.0143 
3 *29:7 *306:A 30.3179 
*END

*D_NET *30 0.00315988
*CONN
*I *304:A I *D sky130_fd_sc_hd__and2_1
*I *320:A I *D sky130_fd_sc_hd__buf_2
*I *308:Q O *D sky130_fd_sc_hd__dfxtp_1
*CAP
1 *304:A 0
2 *320:A 0.00100239
3 *308:Q 0.000577548
4 *30:9 0.00157994
5 *300:B *320:A 0
6 *308:D *30:9 0
7 *311:CLK *320:A 0
8 *17:11 *320:A 0
9 *23:8 *320:A 0
*RES
1 *308:Q *30:9 21.4786 
2 *30:9 *320:A 39.9964 
3 *30:9 *304:A 9.3 
*END
